
#======================================================================
# CRYSTAL DATA
#----------------------------------------------------------------------
data_VESTA_phase_1

_chemical_name_common                  'generated by phonopy                  '
_cell_length_a                         7.978884
_cell_length_b                         7.978884
_cell_length_c                         8.063809
_cell_angle_alpha                      90.000000
_cell_angle_beta                       90.000000
_cell_angle_gamma                      90.000000
_cell_volume                           513.363019
_space_group_name_H-M_alt              'P 4 m m'
_space_group_IT_number                 99

loop_
_space_group_symop_operation_xyz
   'x, y, z'
   '-x, -y, z'
   '-y, x, z'
   'y, -x, z'
   'x, -y, z'
   '-x, y, z'
   '-y, -x, z'
   'y, x, z'

loop_
   _atom_site_label
   _atom_site_occupancy
   _atom_site_fract_x
   _atom_site_fract_y
   _atom_site_fract_z
   _atom_site_adp_type
   _atom_site_U_iso_or_equiv
   _atom_site_type_symbol
   Ba1        1.0     0.000000     0.000000     0.498582    Uiso  ? Ba
   Ba2        1.0     0.500000     0.000000     0.498582    Uiso  ? Ba
   Ba3        1.0     0.000000     0.500000     0.498582    Uiso  ? Ba
   Ba4        1.0     0.500000     0.500000     0.498582    Uiso  ? Ba
   Ba5        1.0     0.000000     0.000000     0.998582    Uiso  ? Ba
   Ba6        1.0     0.500000     0.000000     0.998582    Uiso  ? Ba
   Ba7        1.0     0.000000     0.500000     0.998582    Uiso  ? Ba
   Ba8        1.0     0.500000     0.500000     0.998582    Uiso  ? Ba
   Ru1        1.0     0.250000     0.250000     0.248584    Uiso  ? Ru
   Ru2        1.0     0.750000     0.250000     0.248584    Uiso  ? Ru
   Ru3        1.0     0.250000     0.750000     0.248584    Uiso  ? Ru
   Ru4        1.0     0.750000     0.750000     0.248584    Uiso  ? Ru
   Ru5        1.0     0.250000     0.250000     0.748584    Uiso  ? Ru
   Ru6        1.0     0.750000     0.250000     0.748584    Uiso  ? Ru
   Ru7        1.0     0.250000     0.750000     0.748584    Uiso  ? Ru
   Ru8        1.0     0.750000     0.750000     0.748584    Uiso  ? Ru
   O1         1.0     0.000000     0.250000     0.248618    Uiso  ? O
   O2         1.0     0.500000     0.250000     0.248618    Uiso  ? O
   O3         1.0     0.000000     0.750000     0.248618    Uiso  ? O
   O4         1.0     0.500000     0.750000     0.248618    Uiso  ? O
   O5         1.0     0.000000     0.250000     0.748618    Uiso  ? O
   O6         1.0     0.500000     0.250000     0.748618    Uiso  ? O
   O7         1.0     0.000000     0.750000     0.748618    Uiso  ? O
   O8         1.0     0.500000     0.750000     0.748618    Uiso  ? O
   O9         1.0     0.250000     0.000000     0.248618    Uiso  ? O
   O10        1.0     0.750000     0.000000     0.248618    Uiso  ? O
   O11        1.0     0.250000     0.500000     0.248618    Uiso  ? O
   O12        1.0     0.750000     0.500000     0.248618    Uiso  ? O
   O13        1.0     0.250000     0.000000     0.748618    Uiso  ? O
   O14        1.0     0.750000     0.000000     0.748618    Uiso  ? O
   O15        1.0     0.250000     0.500000     0.748618    Uiso  ? O
   O16        1.0     0.750000     0.500000     0.748618    Uiso  ? O
   O17        1.0     0.250000     0.250000     0.498598    Uiso  ? O
   O18        1.0     0.750000     0.250000     0.498598    Uiso  ? O
   O19        1.0     0.250000     0.750000     0.498598    Uiso  ? O
   O20        1.0     0.750000     0.750000     0.498598    Uiso  ? O
   O21        1.0     0.250000     0.250000     0.998598    Uiso  ? O
   O22        1.0     0.750000     0.250000     0.998598    Uiso  ? O
   O23        1.0     0.250000     0.750000     0.998598    Uiso  ? O
   O24        1.0     0.750000     0.750000     0.998598    Uiso  ? O
